Version 4.1
SHEET 1 6016 856
WIRE 768 64 688 64
WIRE 400 96 160 96
WIRE 656 96 624 96
WIRE 688 96 688 64
WIRE 688 96 656 96
WIRE 768 144 656 144
WIRE 400 160 208 160
WIRE 512 160 400 160
WIRE 656 160 656 144
WIRE 656 160 624 160
WIRE -48 224 -352 224
WIRE 32 224 -48 224
WIRE 400 224 112 224
WIRE 512 224 512 160
WIRE 624 224 512 224
WIRE 768 224 624 224
WIRE 3104 240 2688 240
WIRE 3200 240 3104 240
WIRE 5648 240 5488 240
WIRE -48 256 -48 224
WIRE 208 272 208 160
WIRE 208 288 208 272
WIRE 400 288 352 288
WIRE 656 288 624 288
WIRE 5648 288 5648 240
WIRE 5488 304 5488 240
WIRE 5488 304 5024 304
WIRE 5488 320 5488 304
WIRE 3104 336 3104 240
WIRE -48 384 -48 320
WIRE 160 384 160 96
WIRE 160 384 -48 384
WIRE 208 384 208 336
WIRE 208 384 160 384
WIRE 656 384 656 352
WIRE 656 384 208 384
WIRE 5440 400 5360 400
WIRE 5648 400 5648 368
WIRE 2688 416 2688 240
WIRE 3056 416 3008 416
WIRE 3776 416 3776 352
WIRE 2672 432 2608 432
WIRE 2816 448 2736 448
WIRE 2832 448 2816 448
WIRE 2672 464 2624 464
WIRE 3104 480 3104 432
WIRE 3168 480 3104 480
WIRE 3424 480 3424 400
WIRE 3424 480 3248 480
WIRE 5024 480 5024 304
WIRE 5008 496 4944 496
WIRE 5488 496 5488 416
WIRE 5696 496 5488 496
WIRE 5952 496 5776 496
WIRE 2816 512 2816 448
WIRE 3008 512 3008 416
WIRE 3008 512 2816 512
WIRE 3424 512 3424 480
WIRE 3664 512 3664 432
WIRE 5152 512 5072 512
WIRE 5168 512 5152 512
WIRE 160 528 160 384
WIRE 3104 528 3104 480
WIRE 5008 528 4960 528
WIRE 5952 528 5952 496
WIRE 3776 560 3776 496
WIRE 3424 576 3424 544
WIRE 5152 576 5152 512
WIRE 5360 576 5360 400
WIRE 5360 576 5152 576
WIRE 3424 592 3424 576
WIRE 5488 592 5488 496
WIRE 5952 592 5952 560
WIRE 3008 608 3008 512
WIRE 3056 608 3008 608
WIRE 5024 608 5024 544
WIRE 5360 608 5360 576
WIRE 5952 608 5952 592
WIRE 2688 624 2688 480
WIRE 3104 624 2688 624
WIRE 3888 624 3888 480
WIRE 3104 640 3104 624
WIRE 3664 656 3664 592
WIRE 5440 672 5376 672
WIRE 3104 736 3104 720
WIRE 3888 736 3888 704
WIRE 5024 752 5024 688
WIRE 5488 752 5488 688
FLAG 3664 656 0
FLAG 3664 432 Input
IOPIN 3664 432 In
FLAG 2832 448 output
IOPIN 2832 448 Out
FLAG 2608 432 Input
IOPIN 2608 432 In
FLAG 160 528 0
FLAG 352 288 VCC
IOPIN 352 288 In
FLAG 656 96 VCC
IOPIN 656 96 In
FLAG 3776 352 VCC
IOPIN 3776 352 In
FLAG 3776 560 0
FLAG 2624 464 triangle_wave
IOPIN 2624 464 In
FLAG 3888 480 triangle_wave
IOPIN 3888 480 In
FLAG 3888 736 0
FLAG 3424 592 0
FLAG 3104 736 0
FLAG 3200 320 0
FLAG 3424 400 Amplified
IOPIN 3424 400 Out
FLAG 5168 512 output
IOPIN 5168 512 Out
FLAG 4944 496 Input
IOPIN 4944 496 In
FLAG 4960 528 triangle_wave
IOPIN 4960 528 In
FLAG 5648 400 0
FLAG 5024 752 0
FLAG 5488 752 0
FLAG 5952 608 0
SYMBOL voltage 3664 496 R0
WINDOW 123 0 0 Left 0
WINDOW 39 0 0 Left 0
SYMATTR InstName V2
SYMATTR Value SINE(0 1 50K)
SYMBOL OpAmps\\ADA4898 2704 464 R0
SYMATTR InstName U2
SYMBOL Misc\\NE555 512 192 R0
SYMATTR InstName U1
SYMBOL cap 640 288 R0
SYMATTR InstName C1
SYMATTR Value 0.1µ
SYMATTR SpiceLine V=16 Irms=0 Rser=0 Lser=0
SYMBOL res 752 48 R0
SYMATTR InstName R1
SYMATTR Value 3.3K
SYMBOL res 752 128 R0
SYMATTR InstName R2
SYMATTR Value 3.3K
SYMBOL cap 192 272 R0
SYMATTR InstName C2
SYMATTR Value 0.0015µ
SYMATTR SpiceLine V=16 Irms=0 Rser=0.173 Lser=255p mfg="Würth Elektronik" pn="885012205026 WCAP-CSGP 0402" type="X7R"
SYMBOL res 128 208 R90
WINDOW 0 0 56 VBottom 2
WINDOW 3 32 56 VTop 2
SYMATTR InstName R3
SYMATTR Value 5K
SYMBOL cap -64 256 R0
SYMATTR InstName C3
SYMATTR Value 0.001µ
SYMATTR SpiceLine V=25 Irms=0 Rser=0 Lser=0 mfg="Murata" pn="GRM0335C1E102JA01" type="C0G"
SYMBOL voltage 3776 400 R0
WINDOW 123 0 0 Left 0
WINDOW 39 0 0 Left 0
SYMATTR InstName V1
SYMATTR Value 12
SYMBOL voltage 3888 608 R0
WINDOW 123 0 0 Left 0
WINDOW 39 0 0 Left 0
SYMATTR InstName V4
SYMATTR Value PULSE(-3 3 0 5u 5u 0 10u)
SYMBOL pmos 3056 528 R0
SYMATTR InstName M1
SYMBOL nmos 3056 336 R0
SYMATTR InstName M2
SYMBOL ind 3264 464 R90
WINDOW 0 5 56 VBottom 2
WINDOW 3 32 56 VTop 2
SYMATTR InstName L1
SYMATTR Value 33µ
SYMATTR SpiceLine Ipk=24 Rser=0.00075 Rpar=0 Cpar=0
SYMBOL cap 3408 512 R0
SYMATTR InstName C4
SYMATTR Value 2.7µ
SYMATTR SpiceLine V=25 Irms=0 Rser=0.0099 Lser=355p
SYMBOL voltage 3200 224 R0
WINDOW 123 0 0 Left 0
WINDOW 39 0 0 Left 0
SYMATTR InstName V5
SYMATTR Value +12
SYMBOL voltage 3104 624 R0
WINDOW 123 0 0 Left 0
WINDOW 39 0 0 Left 0
SYMATTR InstName V6
SYMATTR Value -12
SYMBOL OpAmps\\ADA4898 5040 528 R0
SYMATTR InstName U3
SYMBOL nmos 5440 320 R0
SYMATTR InstName M3
SYMBOL nmos 5440 592 R0
SYMATTR InstName M4
SYMBOL Digital\\inv 5440 608 R90
SYMATTR InstName A1
SYMBOL voltage 5648 272 R0
WINDOW 123 0 0 Left 0
WINDOW 39 0 0 Left 0
SYMATTR InstName V3
SYMATTR Value 12
SYMBOL voltage 5024 592 R0
WINDOW 123 0 0 Left 0
WINDOW 39 0 0 Left 0
SYMATTR InstName V7
SYMATTR Value -12
SYMBOL ind 5792 480 R90
WINDOW 0 5 56 VBottom 2
WINDOW 3 32 56 VTop 2
SYMATTR InstName L2
SYMATTR Value 33µ
SYMATTR SpiceLine Ipk=24 Rser=0.00075 Rpar=0 Cpar=0
SYMBOL cap 5936 528 R0
SYMATTR InstName C5
SYMATTR Value 2.7µ
SYMATTR SpiceLine V=25 Irms=0 Rser=0.0099 Lser=355p
TEXT 2400 320 Left 2 !.tran 0 1m 0 10n startup
TEXT -352 760 Left 2 !.four 10k V(Amplified)
TEXT -352 784 Left 2 ;.fra 10k V(Amplified)
